LTspice 24.1.9 for Windows
Circuit: C:\Users\Gabriel\Documents\Graduacao\6-periodo\Circuitos\regulatedVoltage\Draft1.net
Start Time: Fri Nov 14 02:03:36 2025
solver = Normal
Maximum thread count: 6
tnom = 27
temp = 27
method = trap
C2: Increased Cpar to 1e-11
C3: Increased Cpar to 1e-10
Direct Newton iteration failed to find .op point.  (Use ".option noopiter" to skip.)
Starting Gmin stepping
Gmin = 10
Gmin = 1.07374
Gmin = 0.115292
Gmin = 0.0123794
Gmin = 0.00132923
Gmin = 0.000142725
Gmin = 1.5325e-05
Gmin = 1.6455e-06
Gmin = 1.76685e-07
Gmin = 1.89714e-08
Gmin = 2.03704e-09
Gmin = 2.18725e-10
Gmin = 2.34854e-11
Gmin = 2.52173e-12
Gmin = 2.70769e-13
Gmin = 0
Gmin stepping succeeded in finding the operating point.

.step posicao=0.1
.step posicao=0.2
.step posicao=0.3
.step posicao=0.4
.step posicao=0.5
.step posicao=0.6
.step posicao=0.7
.step posicao=0.8
.step posicao=0.9
.step posicao=1
Total elapsed time: 1.281 seconds.

Files loaded:
C:\Users\Gabriel\Documents\Graduacao\6-periodo\Circuitos\regulatedVoltage\Draft1.net
C:\Users\Gabriel\AppData\Local\LTspice\lib\cmp\standard.dio
C:\Users\Gabriel\Documents\Graduacao\6-periodo\Circuitos\regulatedVoltage\1N5402.LIB
C:\Users\Gabriel\AppData\Local\LTspice\lib\sub\LT317A.sub

